* NGSPICE file created from sky130_leo_ip__comparator.ext - technology: sky130A

.subckt sky130_leo_ip__comparator VDD IN_P OUT_P IN_N VSS CLK OUT_N
X0 VSS.t15 a_6094_6197# OUT_P.t6 VSS.t14 sky130_fd_pr__nfet_g5v0d10v5 ad=0.105 pd=1.03 as=0.105 ps=1.03 w=0.75 l=0.5
X1 a_6602_5707# sky130_fd_sc_hvl__buf_4$VAR1_0.A VSS.t36 VSS.t35 sky130_fd_pr__nfet_g5v0d10v5 ad=0.07875 pd=0.96 as=0.21375 ps=2.07 w=0.75 l=0.5
X2 VDD.t16 a_84_7283.t3 a_1077_8251.t1 VDD.t15 sky130_fd_pr__pfet_g5v0d10v5 ad=3 pd=20.6 as=3 ps=20.6 w=10 l=5
X3 sky130_fd_sc_hvl__buf_4$VAR1_0.A sky130_fd_sc_hvl__nand2_1_0.A a_6602_5227# VSS.t32 sky130_fd_pr__nfet_g5v0d10v5 ad=0.21375 pd=2.07 as=0.07875 ps=0.96 w=0.75 l=0.5
X4 sky130_fd_sc_hvl__buf_4$VAR1_0.A SR_set VDD.t20 VDD.t19 sky130_fd_pr__pfet_g5v0d10v5 ad=0.21 pd=1.78 as=0.4275 ps=3.57 w=1.5 l=0.5
X5 OUT_P.t1 a_6094_6197# VDD.t12 VDD.t11 sky130_fd_pr__pfet_g5v0d10v5 ad=0.21 pd=1.78 as=0.21 ps=1.78 w=1.5 l=0.5
X6 VDD.t10 a_6094_6197# OUT_P.t5 VDD.t9 sky130_fd_pr__pfet_g5v0d10v5 ad=0.21 pd=1.78 as=0.21 ps=1.78 w=1.5 l=0.5
X7 sky130_fd_sc_hvl__nand2_1_0.A SR_reset a_6602_5707# VSS.t0 sky130_fd_pr__nfet_g5v0d10v5 ad=0.21375 pd=2.07 as=0.07875 ps=0.96 w=0.75 l=0.5
X8 sky130_fd_sc_hvl__nand2_1_0.A sky130_fd_sc_hvl__buf_4$VAR1_0.A VDD.t37 VDD.t36 sky130_fd_pr__pfet_g5v0d10v5 ad=0.21 pd=1.78 as=0.4275 ps=3.57 w=1.5 l=0.5
X9 OUT_N.t3 a_6094_4183# VSS.t27 VSS.t26 sky130_fd_pr__nfet_g5v0d10v5 ad=0.105 pd=1.03 as=0.105 ps=1.03 w=0.75 l=0.5
X10 VDD.t3 COMP_N.t3 SR_set VDD.t2 sky130_fd_pr__pfet_g5v0d10v5 ad=1.5 pd=10.6 as=1.5 ps=10.6 w=5 l=0.5
X11 VDD.t18 a_1546_691.t3 SR_reset VDD.t17 sky130_fd_pr__pfet_g5v0d10v5 ad=1.5 pd=10.6 as=1.5 ps=10.6 w=5 l=0.5
X12 OUT_N.t7 a_6094_4183# VDD.t29 VDD.t28 sky130_fd_pr__pfet_g5v0d10v5 ad=0.21 pd=1.78 as=0.21 ps=1.78 w=1.5 l=0.5
X13 a_6094_4183# sky130_fd_sc_hvl__buf_4$VAR1_0.A VSS.t34 VSS.t33 sky130_fd_pr__nfet_g5v0d10v5 ad=0.21375 pd=2.07 as=0.105 ps=1.03 w=0.75 l=0.5
X14 VSS.t13 a_6094_6197# OUT_P.t4 VSS.t12 sky130_fd_pr__nfet_g5v0d10v5 ad=0.21375 pd=2.07 as=0.105 ps=1.03 w=0.75 l=0.5
X15 VSS.t25 a_6094_4183# OUT_N.t2 VSS.t24 sky130_fd_pr__nfet_g5v0d10v5 ad=0.105 pd=1.03 as=0.105 ps=1.03 w=0.75 l=0.5
X16 a_1546_691.t0 COMP_N.t4 VSS.t3 VSS.t2 sky130_fd_pr__nfet_g5v0d10v5 ad=1.5 pd=10.6 as=1.5 ps=10.6 w=5 l=0.5
X17 VSS.t31 sky130_fd_sc_hvl__nand2_1_0.A a_6094_6197# VSS.t30 sky130_fd_pr__nfet_g5v0d10v5 ad=0.105 pd=1.03 as=0.21375 ps=2.07 w=0.75 l=0.5
X18 a_84_7283.t2 VSS.t29 VSS.t28 sky130_fd_pr__res_xhigh_po_2p85 l=25.12
X19 COMP_N.t1 IN_P.t0 a_1077_8251.t0 VDD.t4 sky130_fd_pr__pfet_g5v0d10v5 ad=6 pd=40.6 as=6 ps=40.6 w=20 l=0.5
X20 VDD.t33 sky130_fd_sc_hvl__nand2_1_0.A sky130_fd_sc_hvl__buf_4$VAR1_0.A VDD.t32 sky130_fd_pr__pfet_g5v0d10v5 ad=0.4275 pd=3.57 as=0.21 ps=1.78 w=1.5 l=0.5
X21 a_6094_4183# sky130_fd_sc_hvl__buf_4$VAR1_0.A VDD.t35 VDD.t34 sky130_fd_pr__pfet_g5v0d10v5 ad=0.4275 pd=3.57 as=0.21 ps=1.78 w=1.5 l=0.5
X22 COMP_N.t0 CLK.t0 a_1546_691.t1 VSS.t1 sky130_fd_pr__nfet_g5v0d10v5 ad=3 pd=20.6 as=3 ps=20.6 w=10 l=0.5
X23 VDD.t8 a_6094_6197# OUT_P.t2 VDD.t7 sky130_fd_pr__pfet_g5v0d10v5 ad=0.4275 pd=3.57 as=0.21 ps=1.78 w=1.5 l=0.5
X24 VDD.t27 a_6094_4183# OUT_N.t6 VDD.t26 sky130_fd_pr__pfet_g5v0d10v5 ad=0.21 pd=1.78 as=0.21 ps=1.78 w=1.5 l=0.5
X25 VDD.t1 SR_reset sky130_fd_sc_hvl__nand2_1_0.A VDD.t0 sky130_fd_pr__pfet_g5v0d10v5 ad=0.4275 pd=3.57 as=0.21 ps=1.78 w=1.5 l=0.5
X26 a_1077_8251.t2 IN_N.t0 a_1546_691.t2 VDD.t21 sky130_fd_pr__pfet_g5v0d10v5 ad=6 pd=40.6 as=6 ps=40.6 w=20 l=0.5
X27 SR_reset a_1546_691.t4 VSS.t17 VSS.t16 sky130_fd_pr__nfet_g5v0d10v5 ad=0.3 pd=2.6 as=0.3 ps=2.6 w=1 l=0.5
X28 VDD.t31 sky130_fd_sc_hvl__nand2_1_0.A a_6094_6197# VDD.t30 sky130_fd_pr__pfet_g5v0d10v5 ad=0.21 pd=1.78 as=0.4275 ps=3.57 w=1.5 l=0.5
X29 VSS.t23 a_6094_4183# OUT_N.t1 VSS.t22 sky130_fd_pr__nfet_g5v0d10v5 ad=0.105 pd=1.03 as=0.105 ps=1.03 w=0.75 l=0.5
X30 OUT_P.t7 a_6094_6197# VSS.t11 VSS.t10 sky130_fd_pr__nfet_g5v0d10v5 ad=0.105 pd=1.03 as=0.105 ps=1.03 w=0.75 l=0.5
X31 OUT_N.t0 a_6094_4183# VSS.t21 VSS.t20 sky130_fd_pr__nfet_g5v0d10v5 ad=0.105 pd=1.03 as=0.21375 ps=2.07 w=0.75 l=0.5
X32 VDD.t25 a_6094_4183# OUT_N.t5 VDD.t24 sky130_fd_pr__pfet_g5v0d10v5 ad=0.21 pd=1.78 as=0.21 ps=1.78 w=1.5 l=0.5
X33 OUT_P.t3 a_6094_6197# VDD.t6 VDD.t5 sky130_fd_pr__pfet_g5v0d10v5 ad=0.21 pd=1.78 as=0.21 ps=1.78 w=1.5 l=0.5
X34 SR_set COMP_N.t5 VSS.t5 VSS.t4 sky130_fd_pr__nfet_g5v0d10v5 ad=0.3 pd=2.6 as=0.3 ps=2.6 w=1 l=0.5
X35 VDD.t14 a_84_7283.t0 a_84_7283.t1 VDD.t13 sky130_fd_pr__pfet_g5v0d10v5 ad=0.3 pd=2.6 as=0.3 ps=2.6 w=1 l=5
X36 OUT_P.t0 a_6094_6197# VSS.t9 VSS.t8 sky130_fd_pr__nfet_g5v0d10v5 ad=0.105 pd=1.03 as=0.105 ps=1.03 w=0.75 l=0.5
X37 a_6602_5227# SR_set VSS.t19 VSS.t18 sky130_fd_pr__nfet_g5v0d10v5 ad=0.07875 pd=0.96 as=0.21375 ps=2.07 w=0.75 l=0.5
X38 OUT_N.t4 a_6094_4183# VDD.t23 VDD.t22 sky130_fd_pr__pfet_g5v0d10v5 ad=0.21 pd=1.78 as=0.4275 ps=3.57 w=1.5 l=0.5
X39 VSS.t7 a_1546_691.t5 COMP_N.t2 VSS.t6 sky130_fd_pr__nfet_g5v0d10v5 ad=1.5 pd=10.6 as=1.5 ps=10.6 w=5 l=0.5
R0 OUT_P.n3 OUT_P.n1 272.034
R1 OUT_P.n6 OUT_P.n4 203.779
R2 OUT_P.n3 OUT_P.n2 181.864
R3 OUT_P.n6 OUT_P.n5 105.144
R4 OUT_P OUT_P.n7 24.3048
R5 OUT_P.n5 OUT_P.t4 21.2805
R6 OUT_P.n5 OUT_P.t0 21.2805
R7 OUT_P.n4 OUT_P.t6 21.2805
R8 OUT_P.n4 OUT_P.t7 21.2805
R9 OUT_P.n2 OUT_P.t2 17.8272
R10 OUT_P.n2 OUT_P.t1 17.8272
R11 OUT_P.n1 OUT_P.t5 17.8272
R12 OUT_P.n1 OUT_P.t3 17.8272
R13 OUT_P.n7 OUT_P.n6 17.529
R14 OUT_P.n7 OUT_P.n3 13.7643
R15 OUT_P OUT_P.n0 8.67196
R16 OUT_P.n0 OUT_P 5.93406
R17 OUT_P.n0 OUT_P 4.27305
R18 VSS.n847 VSS.n184 60168.6
R19 VSS.n759 VSS.n327 30007
R20 VSS.n832 VSS.n831 18043
R21 VSS.n831 VSS.n184 17798.2
R22 VSS.n830 VSS.n829 7706.1
R23 VSS.n829 VSS.n828 7400.63
R24 VSS.n829 VSS.n184 6683.24
R25 VSS.n831 VSS.n830 4658.04
R26 VSS.n849 VSS.n181 1529.65
R27 VSS.n834 VSS.n179 1529.65
R28 VSS.n1065 VSS.n1064 1529.65
R29 VSS.n1139 VSS.n19 1529.65
R30 VSS.n739 VSS.n723 1372.26
R31 VSS.n1095 VSS.n40 722.496
R32 VSS.n596 VSS.n551 665.317
R33 VSS.n594 VSS.n553 665.317
R34 VSS.n603 VSS.n541 665.317
R35 VSS.n633 VSS.n545 665.317
R36 VSS.n722 VSS.n343 665.317
R37 VSS.n708 VSS.n353 665.317
R38 VSS.n432 VSS.n394 665.317
R39 VSS.n387 VSS.n349 665.317
R40 VSS.n638 VSS.n458 652.583
R41 VSS.n533 VSS.n460 652.583
R42 VSS.n645 VSS.n447 652.583
R43 VSS.n703 VSS.n451 652.583
R44 VSS.n749 VSS.n748 652.583
R45 VSS.n732 VSS.n341 652.583
R46 VSS.n741 VSS.n339 652.583
R47 VSS.n757 VSS.n331 652.583
R48 VSS.n305 VSS.n293 652.583
R49 VSS.n316 VSS.n315 652.583
R50 VSS.n326 VSS.n283 652.583
R51 VSS.n308 VSS.n292 652.583
R52 VSS.n302 VSS.n293 585
R53 VSS.n301 VSS.n300 585
R54 VSS.n298 VSS.n294 585
R55 VSS.n296 VSS.n295 585
R56 VSS.n292 VSS.n291 585
R57 VSS.n292 VSS.n188 585
R58 VSS.n309 VSS.n308 585
R59 VSS.n308 VSS.n307 585
R60 VSS.n310 VSS.n290 585
R61 VSS.n306 VSS.n290 585
R62 VSS.n312 VSS.n311 585
R63 VSS.n313 VSS.n312 585
R64 VSS.n285 VSS.n283 585
R65 VSS.n283 VSS.n280 585
R66 VSS.n315 VSS.n287 585
R67 VSS.n315 VSS.n280 585
R68 VSS.n314 VSS.n289 585
R69 VSS.n314 VSS.n313 585
R70 VSS.n303 VSS.n288 585
R71 VSS.n306 VSS.n288 585
R72 VSS.n305 VSS.n304 585
R73 VSS.n307 VSS.n305 585
R74 VSS.n317 VSS.n316 585
R75 VSS.n320 VSS.n319 585
R76 VSS.n322 VSS.n321 585
R77 VSS.n324 VSS.n284 585
R78 VSS.n326 VSS.n325 585
R79 VSS.n327 VSS.n326 585
R80 VSS.n769 VSS.n761 585
R81 VSS.n761 VSS.n760 585
R82 VSS.n771 VSS.n770 585
R83 VSS.n772 VSS.n771 585
R84 VSS.n278 VSS.n277 585
R85 VSS.n773 VSS.n278 585
R86 VSS.n776 VSS.n775 585
R87 VSS.n775 VSS.n774 585
R88 VSS.n777 VSS.n262 585
R89 VSS.n279 VSS.n262 585
R90 VSS.n779 VSS.n778 585
R91 VSS.n780 VSS.n779 585
R92 VSS.n260 VSS.n259 585
R93 VSS.n781 VSS.n260 585
R94 VSS.n784 VSS.n783 585
R95 VSS.n783 VSS.n782 585
R96 VSS.n785 VSS.n247 585
R97 VSS.n261 VSS.n247 585
R98 VSS.n787 VSS.n786 585
R99 VSS.n788 VSS.n787 585
R100 VSS.n245 VSS.n244 585
R101 VSS.n789 VSS.n245 585
R102 VSS.n792 VSS.n791 585
R103 VSS.n791 VSS.n790 585
R104 VSS.n793 VSS.n231 585
R105 VSS.n246 VSS.n231 585
R106 VSS.n795 VSS.n794 585
R107 VSS.n796 VSS.n795 585
R108 VSS.n229 VSS.n228 585
R109 VSS.n797 VSS.n229 585
R110 VSS.n800 VSS.n799 585
R111 VSS.n799 VSS.n798 585
R112 VSS.n801 VSS.n224 585
R113 VSS.n230 VSS.n224 585
R114 VSS.n803 VSS.n802 585
R115 VSS.n804 VSS.n803 585
R116 VSS.n222 VSS.n221 585
R117 VSS.n805 VSS.n222 585
R118 VSS.n808 VSS.n807 585
R119 VSS.n807 VSS.n806 585
R120 VSS.n809 VSS.n210 585
R121 VSS.n223 VSS.n210 585
R122 VSS.n811 VSS.n810 585
R123 VSS.n812 VSS.n811 585
R124 VSS.n208 VSS.n207 585
R125 VSS.n813 VSS.n208 585
R126 VSS.n816 VSS.n815 585
R127 VSS.n815 VSS.n814 585
R128 VSS.n817 VSS.n198 585
R129 VSS.n209 VSS.n198 585
R130 VSS.n819 VSS.n818 585
R131 VSS.n820 VSS.n819 585
R132 VSS.n197 VSS.n196 585
R133 VSS.n821 VSS.n197 585
R134 VSS.n824 VSS.n823 585
R135 VSS.n823 VSS.n822 585
R136 VSS.n825 VSS.n190 585
R137 VSS.n190 VSS.n189 585
R138 VSS.n827 VSS.n826 585
R139 VSS.n828 VSS.n827 585
R140 VSS.n722 VSS.n721 585
R141 VSS.n723 VSS.n722 585
R142 VSS.n720 VSS.n344 585
R143 VSS.n344 VSS.n342 585
R144 VSS.n719 VSS.n718 585
R145 VSS.n718 VSS.n717 585
R146 VSS.n347 VSS.n346 585
R147 VSS.n716 VSS.n347 585
R148 VSS.n366 VSS.n365 585
R149 VSS.n365 VSS.n348 585
R150 VSS.n368 VSS.n367 585
R151 VSS.n369 VSS.n368 585
R152 VSS.n364 VSS.n363 585
R153 VSS.n370 VSS.n364 585
R154 VSS.n373 VSS.n372 585
R155 VSS.n372 VSS.n371 585
R156 VSS.n374 VSS.n362 585
R157 VSS.n362 VSS.n361 585
R158 VSS.n376 VSS.n375 585
R159 VSS.n377 VSS.n376 585
R160 VSS.n360 VSS.n359 585
R161 VSS.n378 VSS.n360 585
R162 VSS.n381 VSS.n380 585
R163 VSS.n380 VSS.n379 585
R164 VSS.n382 VSS.n358 585
R165 VSS.n358 VSS.n357 585
R166 VSS.n384 VSS.n383 585
R167 VSS.n385 VSS.n384 585
R168 VSS.n356 VSS.n355 585
R169 VSS.n388 VSS.n387 585
R170 VSS.n750 VSS.n749 585
R171 VSS.n752 VSS.n751 585
R172 VSS.n754 VSS.n753 585
R173 VSS.n755 VSS.n332 585
R174 VSS.n757 VSS.n756 585
R175 VSS.n758 VSS.n757 585
R176 VSS.n333 VSS.n331 585
R177 VSS.n331 VSS.n328 585
R178 VSS.n745 VSS.n744 585
R179 VSS.n746 VSS.n745 585
R180 VSS.n743 VSS.n337 585
R181 VSS.n340 VSS.n337 585
R182 VSS.n742 VSS.n741 585
R183 VSS.n741 VSS.n740 585
R184 VSS.n731 VSS.n341 585
R185 VSS.n740 VSS.n341 585
R186 VSS.n730 VSS.n335 585
R187 VSS.n340 VSS.n335 585
R188 VSS.n747 VSS.n336 585
R189 VSS.n747 VSS.n746 585
R190 VSS.n748 VSS.n334 585
R191 VSS.n748 VSS.n328 585
R192 VSS.n733 VSS.n732 585
R193 VSS.n735 VSS.n726 585
R194 VSS.n737 VSS.n736 585
R195 VSS.n727 VSS.n725 585
R196 VSS.n339 VSS.n338 585
R197 VSS.n739 VSS.n339 585
R198 VSS.n709 VSS.n708 585
R199 VSS.n708 VSS.n707 585
R200 VSS.n710 VSS.n351 585
R201 VSS.n354 VSS.n351 585
R202 VSS.n712 VSS.n711 585
R203 VSS.n713 VSS.n712 585
R204 VSS.n345 VSS.n343 585
R205 VSS.n714 VSS.n343 585
R206 VSS.n432 VSS.n431 585
R207 VSS.n429 VSS.n402 585
R208 VSS.n428 VSS.n427 585
R209 VSS.n426 VSS.n425 585
R210 VSS.n424 VSS.n423 585
R211 VSS.n422 VSS.n421 585
R212 VSS.n420 VSS.n419 585
R213 VSS.n418 VSS.n417 585
R214 VSS.n416 VSS.n415 585
R215 VSS.n414 VSS.n413 585
R216 VSS.n412 VSS.n411 585
R217 VSS.n410 VSS.n409 585
R218 VSS.n408 VSS.n407 585
R219 VSS.n406 VSS.n405 585
R220 VSS.n404 VSS.n403 585
R221 VSS.n353 VSS.n352 585
R222 VSS.n430 VSS.n394 585
R223 VSS.n707 VSS.n394 585
R224 VSS.n393 VSS.n392 585
R225 VSS.n393 VSS.n354 585
R226 VSS.n391 VSS.n350 585
R227 VSS.n713 VSS.n350 585
R228 VSS.n390 VSS.n349 585
R229 VSS.n714 VSS.n349 585
R230 VSS.n597 VSS.n596 585
R231 VSS.n596 VSS.n595 585
R232 VSS.n598 VSS.n549 585
R233 VSS.n552 VSS.n549 585
R234 VSS.n600 VSS.n599 585
R235 VSS.n601 VSS.n600 585
R236 VSS.n546 VSS.n545 585
R237 VSS.n545 VSS.n542 585
R238 VSS.n633 VSS.n632 585
R239 VSS.n631 VSS.n544 585
R240 VSS.n630 VSS.n543 585
R241 VSS.n635 VSS.n543 585
R242 VSS.n629 VSS.n628 585
R243 VSS.n627 VSS.n626 585
R244 VSS.n625 VSS.n624 585
R245 VSS.n623 VSS.n622 585
R246 VSS.n621 VSS.n620 585
R247 VSS.n619 VSS.n618 585
R248 VSS.n617 VSS.n616 585
R249 VSS.n615 VSS.n614 585
R250 VSS.n613 VSS.n612 585
R251 VSS.n611 VSS.n610 585
R252 VSS.n609 VSS.n608 585
R253 VSS.n607 VSS.n606 585
R254 VSS.n605 VSS.n541 585
R255 VSS.n635 VSS.n541 585
R256 VSS.n592 VSS.n553 585
R257 VSS.n591 VSS.n590 585
R258 VSS.n588 VSS.n556 585
R259 VSS.n586 VSS.n585 585
R260 VSS.n584 VSS.n557 585
R261 VSS.n583 VSS.n582 585
R262 VSS.n580 VSS.n558 585
R263 VSS.n578 VSS.n577 585
R264 VSS.n576 VSS.n559 585
R265 VSS.n575 VSS.n574 585
R266 VSS.n572 VSS.n560 585
R267 VSS.n570 VSS.n569 585
R268 VSS.n568 VSS.n561 585
R269 VSS.n567 VSS.n566 585
R270 VSS.n564 VSS.n562 585
R271 VSS.n551 VSS.n550 585
R272 VSS.n594 VSS.n593 585
R273 VSS.n595 VSS.n594 585
R274 VSS.n554 VSS.n547 585
R275 VSS.n552 VSS.n547 585
R276 VSS.n602 VSS.n548 585
R277 VSS.n602 VSS.n601 585
R278 VSS.n604 VSS.n603 585
R279 VSS.n603 VSS.n542 585
R280 VSS.n639 VSS.n638 585
R281 VSS.n638 VSS.n637 585
R282 VSS.n640 VSS.n456 585
R283 VSS.n459 VSS.n456 585
R284 VSS.n642 VSS.n641 585
R285 VSS.n643 VSS.n642 585
R286 VSS.n452 VSS.n451 585
R287 VSS.n451 VSS.n448 585
R288 VSS.n703 VSS.n702 585
R289 VSS.n701 VSS.n450 585
R290 VSS.n700 VSS.n449 585
R291 VSS.n705 VSS.n449 585
R292 VSS.n699 VSS.n698 585
R293 VSS.n697 VSS.n696 585
R294 VSS.n695 VSS.n694 585
R295 VSS.n693 VSS.n692 585
R296 VSS.n691 VSS.n690 585
R297 VSS.n689 VSS.n688 585
R298 VSS.n687 VSS.n686 585
R299 VSS.n685 VSS.n684 585
R300 VSS.n683 VSS.n682 585
R301 VSS.n681 VSS.n680 585
R302 VSS.n679 VSS.n678 585
R303 VSS.n677 VSS.n676 585
R304 VSS.n675 VSS.n674 585
R305 VSS.n673 VSS.n672 585
R306 VSS.n671 VSS.n670 585
R307 VSS.n669 VSS.n668 585
R308 VSS.n667 VSS.n666 585
R309 VSS.n665 VSS.n664 585
R310 VSS.n663 VSS.n662 585
R311 VSS.n661 VSS.n660 585
R312 VSS.n659 VSS.n658 585
R313 VSS.n657 VSS.n656 585
R314 VSS.n655 VSS.n654 585
R315 VSS.n653 VSS.n652 585
R316 VSS.n651 VSS.n650 585
R317 VSS.n649 VSS.n648 585
R318 VSS.n647 VSS.n447 585
R319 VSS.n705 VSS.n447 585
R320 VSS.n533 VSS.n532 585
R321 VSS.n530 VSS.n475 585
R322 VSS.n529 VSS.n528 585
R323 VSS.n527 VSS.n526 585
R324 VSS.n525 VSS.n524 585
R325 VSS.n523 VSS.n522 585
R326 VSS.n521 VSS.n520 585
R327 VSS.n519 VSS.n518 585
R328 VSS.n517 VSS.n516 585
R329 VSS.n515 VSS.n514 585
R330 VSS.n513 VSS.n512 585
R331 VSS.n511 VSS.n510 585
R332 VSS.n509 VSS.n508 585
R333 VSS.n507 VSS.n506 585
R334 VSS.n505 VSS.n504 585
R335 VSS.n503 VSS.n502 585
R336 VSS.n501 VSS.n500 585
R337 VSS.n499 VSS.n498 585
R338 VSS.n497 VSS.n496 585
R339 VSS.n495 VSS.n494 585
R340 VSS.n493 VSS.n492 585
R341 VSS.n491 VSS.n490 585
R342 VSS.n489 VSS.n488 585
R343 VSS.n487 VSS.n486 585
R344 VSS.n485 VSS.n484 585
R345 VSS.n483 VSS.n482 585
R346 VSS.n481 VSS.n480 585
R347 VSS.n479 VSS.n478 585
R348 VSS.n477 VSS.n476 585
R349 VSS.n458 VSS.n457 585
R350 VSS.n531 VSS.n460 585
R351 VSS.n637 VSS.n460 585
R352 VSS.n454 VSS.n453 585
R353 VSS.n459 VSS.n453 585
R354 VSS.n644 VSS.n455 585
R355 VSS.n644 VSS.n643 585
R356 VSS.n646 VSS.n645 585
R357 VSS.n645 VSS.n448 585
R358 VSS.n179 VSS.n178 585
R359 VSS.n180 VSS.n179 585
R360 VSS.n856 VSS.n855 585
R361 VSS.n855 VSS.n854 585
R362 VSS.n857 VSS.n177 585
R363 VSS.n177 VSS.n176 585
R364 VSS.n859 VSS.n858 585
R365 VSS.n860 VSS.n859 585
R366 VSS.n171 VSS.n170 585
R367 VSS.n172 VSS.n171 585
R368 VSS.n868 VSS.n867 585
R369 VSS.n867 VSS.n866 585
R370 VSS.n869 VSS.n169 585
R371 VSS.n169 VSS.n168 585
R372 VSS.n871 VSS.n870 585
R373 VSS.n872 VSS.n871 585
R374 VSS.n163 VSS.n162 585
R375 VSS.n164 VSS.n163 585
R376 VSS.n880 VSS.n879 585
R377 VSS.n879 VSS.n878 585
R378 VSS.n881 VSS.n161 585
R379 VSS.n161 VSS.n160 585
R380 VSS.n883 VSS.n882 585
R381 VSS.n884 VSS.n883 585
R382 VSS.n155 VSS.n154 585
R383 VSS.n156 VSS.n155 585
R384 VSS.n892 VSS.n891 585
R385 VSS.n891 VSS.n890 585
R386 VSS.n893 VSS.n153 585
R387 VSS.n153 VSS.n152 585
R388 VSS.n895 VSS.n894 585
R389 VSS.n896 VSS.n895 585
R390 VSS.n147 VSS.n146 585
R391 VSS.n148 VSS.n147 585
R392 VSS.n904 VSS.n903 585
R393 VSS.n903 VSS.n902 585
R394 VSS.n905 VSS.n145 585
R395 VSS.n145 VSS.n144 585
R396 VSS.n907 VSS.n906 585
R397 VSS.n908 VSS.n907 585
R398 VSS.n139 VSS.n138 585
R399 VSS.n140 VSS.n139 585
R400 VSS.n916 VSS.n915 585
R401 VSS.n915 VSS.n914 585
R402 VSS.n917 VSS.n137 585
R403 VSS.n137 VSS.n136 585
R404 VSS.n919 VSS.n918 585
R405 VSS.n920 VSS.n919 585
R406 VSS.n131 VSS.n130 585
R407 VSS.n132 VSS.n131 585
R408 VSS.n928 VSS.n927 585
R409 VSS.n927 VSS.n926 585
R410 VSS.n929 VSS.n129 585
R411 VSS.n129 VSS.n128 585
R412 VSS.n931 VSS.n930 585
R413 VSS.n932 VSS.n931 585
R414 VSS.n123 VSS.n122 585
R415 VSS.n124 VSS.n123 585
R416 VSS.n940 VSS.n939 585
R417 VSS.n939 VSS.n938 585
R418 VSS.n941 VSS.n121 585
R419 VSS.n121 VSS.n120 585
R420 VSS.n943 VSS.n942 585
R421 VSS.n944 VSS.n943 585
R422 VSS.n115 VSS.n114 585
R423 VSS.n116 VSS.n115 585
R424 VSS.n952 VSS.n951 585
R425 VSS.n951 VSS.n950 585
R426 VSS.n953 VSS.n113 585
R427 VSS.n113 VSS.n112 585
R428 VSS.n955 VSS.n954 585
R429 VSS.n956 VSS.n955 585
R430 VSS.n107 VSS.n106 585
R431 VSS.n108 VSS.n107 585
R432 VSS.n964 VSS.n963 585
R433 VSS.n963 VSS.n962 585
R434 VSS.n965 VSS.n105 585
R435 VSS.n105 VSS.n104 585
R436 VSS.n968 VSS.n967 585
R437 VSS.n969 VSS.n968 585
R438 VSS.n966 VSS.n99 585
R439 VSS.n100 VSS.n99 585
R440 VSS.n976 VSS.n98 585
R441 VSS.n976 VSS.n975 585
R442 VSS.n978 VSS.n977 585
R443 VSS.n977 VSS.n56 585
R444 VSS.n979 VSS.n57 585
R445 VSS.n1054 VSS.n57 585
R446 VSS.n981 VSS.n980 585
R447 VSS.n980 VSS.n58 585
R448 VSS.n982 VSS.n64 585
R449 VSS.n1048 VSS.n64 585
R450 VSS.n983 VSS.n65 585
R451 VSS.n1047 VSS.n65 585
R452 VSS.n984 VSS.n66 585
R453 VSS.n1046 VSS.n66 585
R454 VSS.n986 VSS.n985 585
R455 VSS.n985 VSS.n67 585
R456 VSS.n987 VSS.n71 585
R457 VSS.n1040 VSS.n71 585
R458 VSS.n988 VSS.n72 585
R459 VSS.n1039 VSS.n72 585
R460 VSS.n989 VSS.n73 585
R461 VSS.n1038 VSS.n73 585
R462 VSS.n991 VSS.n990 585
R463 VSS.n990 VSS.n74 585
R464 VSS.n992 VSS.n78 585
R465 VSS.n1032 VSS.n78 585
R466 VSS.n993 VSS.n79 585
R467 VSS.n1031 VSS.n79 585
R468 VSS.n994 VSS.n80 585
R469 VSS.n1030 VSS.n80 585
R470 VSS.n996 VSS.n995 585
R471 VSS.n995 VSS.n81 585
R472 VSS.n997 VSS.n85 585
R473 VSS.n1024 VSS.n85 585
R474 VSS.n998 VSS.n86 585
R475 VSS.n1023 VSS.n86 585
R476 VSS.n999 VSS.n87 585
R477 VSS.n1022 VSS.n87 585
R478 VSS.n1001 VSS.n1000 585
R479 VSS.n1000 VSS.n88 585
R480 VSS.n1002 VSS.n92 585
R481 VSS.n1016 VSS.n92 585
R482 VSS.n1003 VSS.n93 585
R483 VSS.n1015 VSS.n93 585
R484 VSS.n1004 VSS.n94 585
R485 VSS.n1014 VSS.n94 585
R486 VSS.n1005 VSS.n97 585
R487 VSS.n97 VSS.n95 585
R488 VSS.n1007 VSS.n1006 585
R489 VSS.n1008 VSS.n1007 585
R490 VSS.n32 VSS.n31 585
R491 VSS.n33 VSS.n32 585
R492 VSS.n1103 VSS.n1102 585
R493 VSS.n1102 VSS.n1101 585
R494 VSS.n1104 VSS.n30 585
R495 VSS.n34 VSS.n30 585
R496 VSS.n1106 VSS.n1105 585
R497 VSS.n1108 VSS.n29 585
R498 VSS.n1109 VSS.n28 585
R499 VSS.n1109 VSS.n18 585
R500 VSS.n1112 VSS.n1111 585
R501 VSS.n1113 VSS.n27 585
R502 VSS.n1115 VSS.n1114 585
R503 VSS.n1117 VSS.n26 585
R504 VSS.n1120 VSS.n1119 585
R505 VSS.n1121 VSS.n25 585
R506 VSS.n1123 VSS.n1122 585
R507 VSS.n1125 VSS.n24 585
R508 VSS.n1128 VSS.n1127 585
R509 VSS.n1129 VSS.n23 585
R510 VSS.n1131 VSS.n1130 585
R511 VSS.n1133 VSS.n22 585
R512 VSS.n1136 VSS.n1135 585
R513 VSS.n1137 VSS.n19 585
R514 VSS.n850 VSS.n849 585
R515 VSS.n183 VSS.n182 585
R516 VSS.n846 VSS.n845 585
R517 VSS.n847 VSS.n846 585
R518 VSS.n844 VSS.n833 585
R519 VSS.n843 VSS.n842 585
R520 VSS.n841 VSS.n840 585
R521 VSS.n839 VSS.n838 585
R522 VSS.n837 VSS.n836 585
R523 VSS.n835 VSS.n834 585
R524 VSS.n1066 VSS.n1065 585
R525 VSS.n1068 VSS.n1067 585
R526 VSS.n1070 VSS.n1069 585
R527 VSS.n1072 VSS.n1071 585
R528 VSS.n1074 VSS.n1073 585
R529 VSS.n1076 VSS.n1075 585
R530 VSS.n1078 VSS.n1077 585
R531 VSS.n1080 VSS.n1079 585
R532 VSS.n1082 VSS.n1081 585
R533 VSS.n1084 VSS.n1083 585
R534 VSS.n1086 VSS.n1085 585
R535 VSS.n1088 VSS.n1087 585
R536 VSS.n1090 VSS.n1089 585
R537 VSS.n1091 VSS.n49 585
R538 VSS.n1093 VSS.n1092 585
R539 VSS.n39 VSS.n38 585
R540 VSS.n1097 VSS.n1096 585
R541 VSS.n1096 VSS.n1095 585
R542 VSS.n1098 VSS.n36 585
R543 VSS.n36 VSS.n34 585
R544 VSS.n1100 VSS.n1099 585
R545 VSS.n1101 VSS.n1100 585
R546 VSS.n37 VSS.n35 585
R547 VSS.n35 VSS.n33 585
R548 VSS.n1010 VSS.n1009 585
R549 VSS.n1009 VSS.n1008 585
R550 VSS.n1011 VSS.n96 585
R551 VSS.n96 VSS.n95 585
R552 VSS.n1013 VSS.n1012 585
R553 VSS.n1014 VSS.n1013 585
R554 VSS.n91 VSS.n90 585
R555 VSS.n1015 VSS.n91 585
R556 VSS.n1018 VSS.n1017 585
R557 VSS.n1017 VSS.n1016 585
R558 VSS.n1019 VSS.n89 585
R559 VSS.n89 VSS.n88 585
R560 VSS.n1021 VSS.n1020 585
R561 VSS.n1022 VSS.n1021 585
R562 VSS.n84 VSS.n83 585
R563 VSS.n1023 VSS.n84 585
R564 VSS.n1026 VSS.n1025 585
R565 VSS.n1025 VSS.n1024 585
R566 VSS.n1027 VSS.n82 585
R567 VSS.n82 VSS.n81 585
R568 VSS.n1029 VSS.n1028 585
R569 VSS.n1030 VSS.n1029 585
R570 VSS.n77 VSS.n76 585
R571 VSS.n1031 VSS.n77 585
R572 VSS.n1034 VSS.n1033 585
R573 VSS.n1033 VSS.n1032 585
R574 VSS.n1035 VSS.n75 585
R575 VSS.n75 VSS.n74 585
R576 VSS.n1037 VSS.n1036 585
R577 VSS.n1038 VSS.n1037 585
R578 VSS.n70 VSS.n69 585
R579 VSS.n1039 VSS.n70 585
R580 VSS.n1042 VSS.n1041 585
R581 VSS.n1041 VSS.n1040 585
R582 VSS.n1043 VSS.n68 585
R583 VSS.n68 VSS.n67 585
R584 VSS.n1045 VSS.n1044 585
R585 VSS.n1046 VSS.n1045 585
R586 VSS.n63 VSS.n62 585
R587 VSS.n1047 VSS.n63 585
R588 VSS.n1050 VSS.n1049 585
R589 VSS.n1049 VSS.n1048 585
R590 VSS.n1051 VSS.n60 585
R591 VSS.n60 VSS.n58 585
R592 VSS.n1053 VSS.n1052 585
R593 VSS.n1054 VSS.n1053 585
R594 VSS.n61 VSS.n59 585
R595 VSS.n59 VSS.n56 585
R596 VSS.n974 VSS.n973 585
R597 VSS.n975 VSS.n974 585
R598 VSS.n972 VSS.n101 585
R599 VSS.n101 VSS.n100 585
R600 VSS.n971 VSS.n970 585
R601 VSS.n970 VSS.n969 585
R602 VSS.n103 VSS.n102 585
R603 VSS.n104 VSS.n103 585
R604 VSS.n961 VSS.n960 585
R605 VSS.n962 VSS.n961 585
R606 VSS.n959 VSS.n109 585
R607 VSS.n109 VSS.n108 585
R608 VSS.n958 VSS.n957 585
R609 VSS.n957 VSS.n956 585
R610 VSS.n111 VSS.n110 585
R611 VSS.n112 VSS.n111 585
R612 VSS.n949 VSS.n948 585
R613 VSS.n950 VSS.n949 585
R614 VSS.n947 VSS.n117 585
R615 VSS.n117 VSS.n116 585
R616 VSS.n946 VSS.n945 585
R617 VSS.n945 VSS.n944 585
R618 VSS.n119 VSS.n118 585
R619 VSS.n120 VSS.n119 585
R620 VSS.n937 VSS.n936 585
R621 VSS.n938 VSS.n937 585
R622 VSS.n935 VSS.n125 585
R623 VSS.n125 VSS.n124 585
R624 VSS.n934 VSS.n933 585
R625 VSS.n933 VSS.n932 585
R626 VSS.n127 VSS.n126 585
R627 VSS.n128 VSS.n127 585
R628 VSS.n925 VSS.n924 585
R629 VSS.n926 VSS.n925 585
R630 VSS.n923 VSS.n133 585
R631 VSS.n133 VSS.n132 585
R632 VSS.n922 VSS.n921 585
R633 VSS.n921 VSS.n920 585
R634 VSS.n135 VSS.n134 585
R635 VSS.n136 VSS.n135 585
R636 VSS.n913 VSS.n912 585
R637 VSS.n914 VSS.n913 585
R638 VSS.n911 VSS.n141 585
R639 VSS.n141 VSS.n140 585
R640 VSS.n910 VSS.n909 585
R641 VSS.n909 VSS.n908 585
R642 VSS.n143 VSS.n142 585
R643 VSS.n144 VSS.n143 585
R644 VSS.n901 VSS.n900 585
R645 VSS.n902 VSS.n901 585
R646 VSS.n899 VSS.n149 585
R647 VSS.n149 VSS.n148 585
R648 VSS.n898 VSS.n897 585
R649 VSS.n897 VSS.n896 585
R650 VSS.n151 VSS.n150 585
R651 VSS.n152 VSS.n151 585
R652 VSS.n889 VSS.n888 585
R653 VSS.n890 VSS.n889 585
R654 VSS.n887 VSS.n157 585
R655 VSS.n157 VSS.n156 585
R656 VSS.n886 VSS.n885 585
R657 VSS.n885 VSS.n884 585
R658 VSS.n159 VSS.n158 585
R659 VSS.n160 VSS.n159 585
R660 VSS.n877 VSS.n876 585
R661 VSS.n878 VSS.n877 585
R662 VSS.n875 VSS.n165 585
R663 VSS.n165 VSS.n164 585
R664 VSS.n874 VSS.n873 585
R665 VSS.n873 VSS.n872 585
R666 VSS.n167 VSS.n166 585
R667 VSS.n168 VSS.n167 585
R668 VSS.n865 VSS.n864 585
R669 VSS.n866 VSS.n865 585
R670 VSS.n863 VSS.n173 585
R671 VSS.n173 VSS.n172 585
R672 VSS.n862 VSS.n861 585
R673 VSS.n861 VSS.n860 585
R674 VSS.n175 VSS.n174 585
R675 VSS.n176 VSS.n175 585
R676 VSS.n853 VSS.n852 585
R677 VSS.n854 VSS.n853 585
R678 VSS.n851 VSS.n181 585
R679 VSS.n181 VSS.n180 585
R680 VSS.n1139 VSS.n1138 585
R681 VSS.n1140 VSS.n1139 585
R682 VSS.n20 VSS.n16 585
R683 VSS.n1141 VSS.n16 585
R684 VSS.n1144 VSS.n1143 585
R685 VSS.n1143 VSS.n1142 585
R686 VSS.n15 VSS.n13 585
R687 VSS.n17 VSS.n15 585
R688 VSS.n1056 VSS.n1055 585
R689 VSS.n1056 VSS.t28 585
R690 VSS.n1058 VSS.n1057 585
R691 VSS.n1059 VSS.n1058 585
R692 VSS.n53 VSS.n51 585
R693 VSS.n1060 VSS.n51 585
R694 VSS.n1063 VSS.n55 585
R695 VSS.n1063 VSS.n1062 585
R696 VSS.n1064 VSS.n50 585
R697 VSS.n1064 VSS.n41 585
R698 VSS.n830 VSS.n188 558.643
R699 VSS.n760 VSS.n759 550
R700 VSS.n827 VSS.n190 539.294
R701 VSS.n823 VSS.n190 539.294
R702 VSS.n823 VSS.n197 539.294
R703 VSS.n819 VSS.n197 539.294
R704 VSS.n819 VSS.n198 539.294
R705 VSS.n815 VSS.n198 539.294
R706 VSS.n815 VSS.n208 539.294
R707 VSS.n811 VSS.n208 539.294
R708 VSS.n811 VSS.n210 539.294
R709 VSS.n807 VSS.n210 539.294
R710 VSS.n807 VSS.n222 539.294
R711 VSS.n803 VSS.n222 539.294
R712 VSS.n803 VSS.n224 539.294
R713 VSS.n799 VSS.n224 539.294
R714 VSS.n799 VSS.n229 539.294
R715 VSS.n795 VSS.n229 539.294
R716 VSS.n795 VSS.n231 539.294
R717 VSS.n791 VSS.n231 539.294
R718 VSS.n791 VSS.n245 539.294
R719 VSS.n787 VSS.n245 539.294
R720 VSS.n787 VSS.n247 539.294
R721 VSS.n783 VSS.n247 539.294
R722 VSS.n783 VSS.n260 539.294
R723 VSS.n779 VSS.n260 539.294
R724 VSS.n779 VSS.n262 539.294
R725 VSS.n775 VSS.n262 539.294
R726 VSS.n775 VSS.n278 539.294
R727 VSS.n771 VSS.n278 539.294
R728 VSS.n771 VSS.n761 539.294
R729 VSS.n828 VSS.n189 463.159
R730 VSS.n822 VSS.n821 463.159
R731 VSS.n814 VSS.n209 463.159
R732 VSS.n813 VSS.n812 463.159
R733 VSS.n806 VSS.n223 463.159
R734 VSS.n806 VSS.n805 463.159
R735 VSS.n798 VSS.n230 463.159
R736 VSS.n798 VSS.n797 463.159
R737 VSS.n797 VSS.n796 463.159
R738 VSS.n790 VSS.n789 463.159
R739 VSS.n789 VSS.n788 463.159
R740 VSS.n782 VSS.n261 463.159
R741 VSS.n781 VSS.n780 463.159
R742 VSS.n774 VSS.n773 463.159
R743 VSS.n772 VSS.n760 463.159
R744 VSS.n223 VSS.t30 429.387
R745 VSS.n788 VSS.t33 429.387
R746 VSS.t0 VSS.n804 410.089
R747 VSS.n246 VSS.t32 410.089
R748 VSS.n846 VSS.n183 394
R749 VSS.n846 VSS.n833 394
R750 VSS.n842 VSS.n841 394
R751 VSS.n838 VSS.n837 394
R752 VSS.n853 VSS.n181 394
R753 VSS.n853 VSS.n175 394
R754 VSS.n861 VSS.n175 394
R755 VSS.n861 VSS.n173 394
R756 VSS.n865 VSS.n173 394
R757 VSS.n865 VSS.n167 394
R758 VSS.n873 VSS.n167 394
R759 VSS.n873 VSS.n165 394
R760 VSS.n877 VSS.n165 394
R761 VSS.n877 VSS.n159 394
R762 VSS.n885 VSS.n159 394
R763 VSS.n885 VSS.n157 394
R764 VSS.n889 VSS.n157 394
R765 VSS.n889 VSS.n151 394
R766 VSS.n897 VSS.n151 394
R767 VSS.n897 VSS.n149 394
R768 VSS.n901 VSS.n149 394
R769 VSS.n901 VSS.n143 394
R770 VSS.n909 VSS.n143 394
R771 VSS.n909 VSS.n141 394
R772 VSS.n913 VSS.n141 394
R773 VSS.n913 VSS.n135 394
R774 VSS.n921 VSS.n135 394
R775 VSS.n921 VSS.n133 394
R776 VSS.n925 VSS.n133 394
R777 VSS.n925 VSS.n127 394
R778 VSS.n933 VSS.n127 394
R779 VSS.n933 VSS.n125 394
R780 VSS.n937 VSS.n125 394
R781 VSS.n937 VSS.n119 394
R782 VSS.n945 VSS.n119 394
R783 VSS.n945 VSS.n117 394
R784 VSS.n949 VSS.n117 394
R785 VSS.n949 VSS.n111 394
R786 VSS.n957 VSS.n111 394
R787 VSS.n957 VSS.n109 394
R788 VSS.n961 VSS.n109 394
R789 VSS.n961 VSS.n103 394
R790 VSS.n970 VSS.n103 394
R791 VSS.n970 VSS.n101 394
R792 VSS.n974 VSS.n101 394
R793 VSS.n974 VSS.n59 394
R794 VSS.n1053 VSS.n59 394
R795 VSS.n1053 VSS.n60 394
R796 VSS.n1049 VSS.n60 394
R797 VSS.n1049 VSS.n63 394
R798 VSS.n1045 VSS.n63 394
R799 VSS.n1045 VSS.n68 394
R800 VSS.n1041 VSS.n68 394
R801 VSS.n1041 VSS.n70 394
R802 VSS.n1037 VSS.n70 394
R803 VSS.n1037 VSS.n75 394
R804 VSS.n1033 VSS.n75 394
R805 VSS.n1033 VSS.n77 394
R806 VSS.n1029 VSS.n77 394
R807 VSS.n1029 VSS.n82 394
R808 VSS.n1025 VSS.n82 394
R809 VSS.n1025 VSS.n84 394
R810 VSS.n1021 VSS.n84 394
R811 VSS.n1021 VSS.n89 394
R812 VSS.n1017 VSS.n89 394
R813 VSS.n1017 VSS.n91 394
R814 VSS.n1013 VSS.n91 394
R815 VSS.n1013 VSS.n96 394
R816 VSS.n1009 VSS.n96 394
R817 VSS.n1009 VSS.n35 394
R818 VSS.n1100 VSS.n35 394
R819 VSS.n1100 VSS.n36 394
R820 VSS.n1096 VSS.n36 394
R821 VSS.n1096 VSS.n39 394
R822 VSS.n1093 VSS.n49 394
R823 VSS.n1089 VSS.n1088 394
R824 VSS.n1085 VSS.n1084 394
R825 VSS.n1081 VSS.n1080 394
R826 VSS.n1077 VSS.n1076 394
R827 VSS.n1073 VSS.n1072 394
R828 VSS.n1069 VSS.n1068 394
R829 VSS.n1064 VSS.n1063 394
R830 VSS.n1063 VSS.n51 394
R831 VSS.n1058 VSS.n51 394
R832 VSS.n1058 VSS.n1056 394
R833 VSS.n1056 VSS.n15 394
R834 VSS.n1143 VSS.n15 394
R835 VSS.n1143 VSS.n16 394
R836 VSS.n1139 VSS.n16 394
R837 VSS.n855 VSS.n179 394
R838 VSS.n855 VSS.n177 394
R839 VSS.n859 VSS.n177 394
R840 VSS.n859 VSS.n171 394
R841 VSS.n867 VSS.n171 394
R842 VSS.n867 VSS.n169 394
R843 VSS.n871 VSS.n169 394
R844 VSS.n871 VSS.n163 394
R845 VSS.n879 VSS.n163 394
R846 VSS.n879 VSS.n161 394
R847 VSS.n883 VSS.n161 394
R848 VSS.n883 VSS.n155 394
R849 VSS.n891 VSS.n155 394
R850 VSS.n891 VSS.n153 394
R851 VSS.n895 VSS.n153 394
R852 VSS.n895 VSS.n147 394
R853 VSS.n903 VSS.n147 394
R854 VSS.n903 VSS.n145 394
R855 VSS.n907 VSS.n145 394
R856 VSS.n907 VSS.n139 394
R857 VSS.n915 VSS.n139 394
R858 VSS.n915 VSS.n137 394
R859 VSS.n919 VSS.n137 394
R860 VSS.n919 VSS.n131 394
R861 VSS.n927 VSS.n131 394
R862 VSS.n927 VSS.n129 394
R863 VSS.n931 VSS.n129 394
R864 VSS.n931 VSS.n123 394
R865 VSS.n939 VSS.n123 394
R866 VSS.n939 VSS.n121 394
R867 VSS.n943 VSS.n121 394
R868 VSS.n943 VSS.n115 394
R869 VSS.n951 VSS.n115 394
R870 VSS.n951 VSS.n113 394
R871 VSS.n955 VSS.n113 394
R872 VSS.n955 VSS.n107 394
R873 VSS.n963 VSS.n107 394
R874 VSS.n963 VSS.n105 394
R875 VSS.n968 VSS.n105 394
R876 VSS.n968 VSS.n99 394
R877 VSS.n976 VSS.n99 394
R878 VSS.n977 VSS.n976 394
R879 VSS.n977 VSS.n57 394
R880 VSS.n980 VSS.n57 394
R881 VSS.n980 VSS.n64 394
R882 VSS.n65 VSS.n64 394
R883 VSS.n66 VSS.n65 394
R884 VSS.n985 VSS.n66 394
R885 VSS.n985 VSS.n71 394
R886 VSS.n72 VSS.n71 394
R887 VSS.n73 VSS.n72 394
R888 VSS.n990 VSS.n73 394
R889 VSS.n990 VSS.n78 394
R890 VSS.n79 VSS.n78 394
R891 VSS.n80 VSS.n79 394
R892 VSS.n995 VSS.n80 394
R893 VSS.n995 VSS.n85 394
R894 VSS.n86 VSS.n85 394
R895 VSS.n87 VSS.n86 394
R896 VSS.n1000 VSS.n87 394
R897 VSS.n1000 VSS.n92 394
R898 VSS.n93 VSS.n92 394
R899 VSS.n94 VSS.n93 394
R900 VSS.n97 VSS.n94 394
R901 VSS.n1007 VSS.n97 394
R902 VSS.n1007 VSS.n32 394
R903 VSS.n1102 VSS.n32 394
R904 VSS.n1102 VSS.n30 394
R905 VSS.n1106 VSS.n30 394
R906 VSS.n1109 VSS.n1108 394
R907 VSS.n1111 VSS.n1109 394
R908 VSS.n1115 VSS.n27 394
R909 VSS.n1119 VSS.n1117 394
R910 VSS.n1123 VSS.n25 394
R911 VSS.n1127 VSS.n1125 394
R912 VSS.n1131 VSS.n23 394